
**** 06/05/18 18:34:29 ******* PSpice Lite (March 2016) ******* ID# 10813 ****

 ** Profile: "SCHEMATIC1-bias"  [ F:\fyp2\fyp2-PSpiceFiles\SCHEMATIC1\bias.sim ] 


 ****     CIRCUIT DESCRIPTION


******************************************************************************




** Creating circuit file "bias.cir" 
** WARNING: THIS AUTOMATICALLY GENERATED FILE MAY BE OVERWRITTEN BY SUBSEQUENT SIMULATIONS

*Libraries: 
* Profile Libraries :
* Local Libraries :
.LIB "../../../fypd.lib" 
* From [PSPICE NETLIST] section of C:\Users\abbac\AppData\Roaming\SPB_Data\cdssetup\OrCAD_PSpice\17.2.0\PSpice.ini file:
.lib "nomd.lib" 

*Analysis directives: 
.TRAN  0 59.6u 58u 10p SKIPBP 
.OPTIONS ADVCONV
.PROBE V(*) I(alias(*)) W(alias(*)) D(alias(*)) NOISE(alias(*)) 
.INC "..\SCHEMATIC1.net" 



**** INCLUDING SCHEMATIC1.net ****
* FYP2
D_D1         N00210 N00240 FYPDD 
R_R1         N00190 N00206  50 TC=0,0 
R_R2         0 N00240  1000 TC=0,0 
L_L1         0 N00210  15n  
C_C1         N00206 N00210  0.7p  TC=0,0 
C_C2         0 N00240  1000p  TC=0,0 
V_V1         N00190 0   PWL   
+ FILE "D:\FYP\Waveforms\wave_16_tone_10000000_band.csv" 

ERROR(ORPSIM-15347): Cannot open input file D:\FYP\Waveforms\wave_16_tone_10000000_band.csv.


ABORTING SIMULATION
**** 06/05/18 18:34:29 ******* PSpice Lite (March 2016) ******* ID# 10813 ****

 ** Profile: "SCHEMATIC1-bias"  [ F:\fyp2\fyp2-PSpiceFiles\SCHEMATIC1\bias.sim ] 


 ****     JOB STATISTICS SUMMARY


******************************************************************************



Node counts:
  Top level (NUNODS)                =           1
  External (NCNODS)                 =           5
  Total (NUMNOD)                    =           0

Total device count (NUMEL)          =           8
  Capacitors (C)                    =           2
  Diodes (D)                        =           1
  Inductors (L)                     =           1
  Resistors (R)                     =           2
  Voltage Sources (V)               =           1

Number of subcircuits (X)           =           0

Analysis statistics:
  No. total time points (NUMTTP)    =           0
  No. rejected time points (NUMRTP) =           0
  No. iterations (NUMNIT)           =           0

Load Threads                        =           1

Runtime statistics:                       Seconds      Iterations
  Readin                            =        0.00
  General setup                     =        0.00
  CMI setup                     =        0.00
  Setup                             =        0.00
  DC sweep                          =        0.00               0
  Bias point                        =        0.00               0
  AC and noise                      =        0.00               0
  Total transient analysis          =        0.00
  Output                            =        0.00
  Overhead                          =        0.00
  Total job time                    =         .31
