
**** 06/07/18 09:18:31 ******* PSpice Lite (March 2016) ******* ID# 10813 ****

 ** Profile: "SCHEMATIC1-bias"  [ G:\fyp2\fyp2-pspicefiles\schematic1\bias.sim ] 


 ****     CIRCUIT DESCRIPTION


******************************************************************************




** Creating circuit file "bias.cir" 
** WARNING: THIS AUTOMATICALLY GENERATED FILE MAY BE OVERWRITTEN BY SUBSEQUENT SIMULATIONS

*Libraries: 
* Profile Libraries :
* Local Libraries :
.LIB "../../../fypd.lib" 
* From [PSPICE NETLIST] section of C:\Users\abbac\AppData\Roaming\SPB_Data\cdssetup\OrCAD_PSpice\17.2.0\PSpice.ini file:
.lib "nomd.lib" 

*Analysis directives: 
.TRAN  0 59.6u 58u 10p SKIPBP 
.OPTIONS ADVCONV
.PROBE V(*) I(alias(*)) W(alias(*)) D(alias(*)) NOISE(alias(*)) 
.INC "..\SCHEMATIC1.net" 



**** INCLUDING SCHEMATIC1.net ****
* FYP2
D_D1         N00210 N00240 FYPDD 
R_R1         N00190 N00206  50 TC=0,0 
R_R2         0 N00240  1000 TC=0,0 
L_L1         0 N00210  2n  
C_C1         N00206 N00210  0.1p  TC=0,0 
C_C2         0 N00240  1000p  TC=0,0 
V_V1         N00190 0   PWL   
+ FILE "G:\FYP\Waveforms\wave_16_tone_10000000_band.csv" 
+  


**** RESUMING bias.cir ****
.END

**** 06/07/18 09:18:31 ******* PSpice Lite (March 2016) ******* ID# 10813 ****

 ** Profile: "SCHEMATIC1-bias"  [ G:\fyp2\fyp2-pspicefiles\schematic1\bias.sim ] 


 ****     Diode MODEL PARAMETERS


******************************************************************************




               FYPDD           
          IS    5.000000E-06 
           N    1.05         
          BV    2            
         IBV  100.000000E-06 
          RS   20            
          TT   10.000000E-12 
         CJO  140.000000E-15 
          VJ     .34         
           M     .4          
          EG     .69         
         XTI    2            



          JOB ABORTED

**** 06/07/18 09:18:31 ******* PSpice Lite (March 2016) ******* ID# 10813 ****

 ** Profile: "SCHEMATIC1-bias"  [ G:\fyp2\fyp2-pspicefiles\schematic1\bias.sim ] 


 ****     JOB STATISTICS SUMMARY


******************************************************************************



  Total job time                    =       69.94
